%%%%%%%%%%%%%%%%%%%%%%%%%%%%%%%%%%%%%%%%%%%%%%%%%%%%%%%%%%%%%%%%%%%%%%%%%%%%%%%%
%                                                                              %
% SU2 configuration file                                                       %
% Case description: Inviscid, internal flow over a bump in a channel           %
% Author: Thomas D. Economon                                                   %
% Institution: Stanford University                                             %
% Date: 2012.09.29                                                             %
% File Version 4.0.2 "Cardinal"                                                %
%                                                                              %
%%%%%%%%%%%%%%%%%%%%%%%%%%%%%%%%%%%%%%%%%%%%%%%%%%%%%%%%%%%%%%%%%%%%%%%%%%%%%%%%

% ------------- DIRECT, ADJOINT, AND LINEARIZED PROBLEM DEFINITION ------------%
%                               
SOLVER= FEM_EULER
MATH_PROBLEM= DIRECT
RESTART_SOL= NO

% -------------------- COMPRESSIBLE FREE-STREAM DEFINITION --------------------%

MACH_NUMBER= 0.5
AOA= 0.0

SIDESLIP_ANGLE= 0.0

FREESTREAM_PRESSURE= 101300.0
FREESTREAM_TEMPERATURE= 288.0

% ---------------------- REFERENCE VALUE DEFINITION ---------------------------%

REF_ORIGIN_MOMENT_X = 0.25
REF_ORIGIN_MOMENT_Y = 0.00
REF_ORIGIN_MOMENT_Z = 0.00

REF_LENGTH= 1.0

REF_AREA= 1.0


% -------------- COMPRESSIBLE AND INCOMPRESSIBLE FLUID CONSTANTS --------------%
%

GAMMA_VALUE= 1.4
GAS_CONSTANT= 287.87

% -------------------- BOUNDARY CONDITION DEFINITION --------------------------%

MARKER_EULER= ( upper_wall, lower_wall )

INLET_TYPE= TOTAL_CONDITIONS

MARKER_INLET= ( inlet, 288.6, 102010.0, 1.0, 0.0, 0.0 )

MARKER_OUTLET= ( outlet, 101300.0 )

% ------------- COMMON PARAMETERS TO DEFINE THE NUMERICAL METHOD --------------%
%

CFL_NUMBER= 0.001
ITER= 99999
RK_ALPHA_COEFF= ( 0.666667, 0.666667, 1.0 )

% ------------------------ SURFACES IDENTIFICATION ----------------------------%

MARKER_PLOTTING= ( lower_wall )

MARKER_MONITORING= ( upper_wall, lower_wall )

% ------------------ FEM FLOW NUMERICAL METHOD DEFINITION ----------------------%
%

NUM_METHOD_FEM_FLOW= DG
RIEMANN_SOLVER_FEM= ROE
QUADRATURE_FACTOR_STRAIGHT_FEM = 2.0
QUADRATURE_FACTOR_CURVED_FEM = 2.0

TIME_DISCRE_FEM_FLOW= RUNGE-KUTTA_EXPLICIT
TIME_DISCRE_FLOW= RUNGE-KUTTA_EXPLICIT

% --------------------------- CONVERGENCE PARAMETERS --------------------------%
%

CONV_RESIDUAL_MINVAL= -8
CONV_STARTITER= 10
CONV_CAUCHY_ELEMS= 100
CONV_CAUCHY_EPS= 1E-6

% ------------------------- INPUT/OUTPUT INFORMATION --------------------------%
%
% Mesh input file
MESH_FILENAME= mesh_channel_256x128.su2
%
% Mesh input file format (SU2, CGNS, NETCDF_ASCII)
MESH_FORMAT= SU2
%
% Mesh output file
MESH_OUT_FILENAME= mesh_out.su2
%
% Restart flow input file
SOLUTION_FILENAME= solution_flow.dat
%
% Restart adjoint input file
SOLUTION_ADJ_FILENAME= solution_adj.dat
%
% Output file format (PARAVIEW, TECPLOT, STL)
TABULAR_FORMAT= CSV
%
% Output file convergence history (w/o extension) 
CONV_FILENAME= history
%
% Output file restart flow
RESTART_FILENAME= restart_flow.dat
%
% Output file restart adjoint
RESTART_ADJ_FILENAME= restart_adj.dat
%
% Output file flow (w/o extension) variables
VOLUME_FILENAME= flow
%
% Output file adjoint (w/o extension) variables
VOLUME_ADJ_FILENAME= adjoint
%
% Output objective function gradient (using continuous adjoint)
GRAD_OBJFUNC_FILENAME= of_grad.dat
%
% Output file surface flow coefficient (w/o extension)
SURFACE_FILENAME= surface_flow
%
% Output file surface adjoint coefficient (w/o extension)
SURFACE_ADJ_FILENAME= surface_adjoint
%
% 
% Screen output
SCREEN_OUTPUT= (INNER_ITER, WALL_TIME, RMS_DENSITY, RMS_ENERGY, LIFT, DRAG)


OUTPUT_FILES= RESTART_ASCII, PARAVIEW_MULTIBLOCK

OUTPUT_WRT_FREQ= 1000
