SOLVER= RANS

KIND_TURB_MODEL= SST

MATH_PROBLEM= DIRECT

RESTART_SOL= NO

AXISYMMETRIC = YES

% ------------------------- Time-dependent Simulation -------------------------------%
%
TIME_MARCHING = NO

% ----------- COMPRESSIBLE AND INCOMPRESSIBLE FREE-STREAM DEFINITION ----------%

MACH_NUMBER= 0.00583

AOA= 0.0

SIDESLIP_ANGLE= 0.0

FREESTREAM_TEMPERATURE= 300.0
FREESTREAM_PRESSURE  = 101365

REYNOLDS_NUMBER = 2000

REYNOLDS_LENGTH = 0.6

INIT_OPTION = TD_CONDITIONS

FREESTREAM_VISCOSITY = 0.0006

CFL_NUMBER= 250

ITER= 99999

% ---------------------- REFERENCE VALUE DEFINITION ---------------------------%

REF_ORIGIN_MOMENT_X = 0.25
REF_ORIGIN_MOMENT_Y = 0.00
REF_ORIGIN_MOMENT_Z = 0.00

REF_LENGTH= 1.0

REF_AREA= 2.0

% -------------------- BOUNDARY CONDITION DEFINITION --------------------------%

VISCOSITY_MODEL= CONSTANT_VISCOSITY
MU_CONSTANT= 0.0006
CONDUCTIVITY_MODEL= CONSTANT_PRANDTL
PRANDTL_LAM= 0.72
PRANDTL_TURB= 0.90

%
MARKER_HEATFLUX = (upper, left)

MARKER_FAR= ( inlet )

MARKER_OUTLET= ( right, 101365 )

MARKER_SYM= ( lower )

MARKER_ANALYZE = (inlet)
MARKER_PLOTTING = (inlet)



% ------------- COMMON PARAMETERS DEFINING THE NUMERICAL METHOD ---------------%

NUM_METHOD_GRAD= WEIGHTED_LEAST_SQUARES
%

% ----------------------- SLOPE LIMITER DEFINITION ----------------------------%

VENKAT_LIMITER_COEFF= 0.1

ADJ_SHARP_LIMITER_COEFF= 3.0

REF_SHARP_EDGES= 3.0

SENS_REMOVE_SHARP= NO


% -------------------- FLOW NUMERICAL METHOD DEFINITION -----------------------%

CONV_NUM_METHOD_FLOW= ROE

MUSCL_FLOW= YES

SLOPE_LIMITER_FLOW= NONE

JST_SENSOR_COEFF= ( 0.5, 0.02 )

TIME_DISCRE_FLOW= EULER_IMPLICIT

% -------------------- TURBULENT NUMERICAL METHOD DEFINITION ------------------%
%

CONV_NUM_METHOD_TURB= SCALAR_UPWIND

MUSCL_TURB= NO

SLOPE_LIMITER_TURB= VENKATAKRISHNAN

TIME_DISCRE_TURB= EULER_IMPLICIT

% --------------------------- CONVERGENCE PARAMETERS --------------------------%

CONV_FIELD= RMS_DENSITY

CONV_RESIDUAL_MINVAL= -14

CONV_STARTITER= 10

CONV_CAUCHY_ELEMS= 100

CONV_CAUCHY_EPS= 1E-6
%

% ------------------------- INPUT/OUTPUT INFORMATION --------------------------%

MESH_FILENAME= mesh.su2

MESH_FORMAT= SU2

MESH_OUT_FILENAME= mesh_out.su2

SOLUTION_FILENAME= solution_flow.dat

SOLUTION_ADJ_FILENAME= solution_adj.dat

TABULAR_FORMAT= CSV

CONV_FILENAME= history

RESTART_FILENAME= restart_flow.dat

RESTART_ADJ_FILENAME= restart_adj.dat

VOLUME_FILENAME= flow

VOLUME_ADJ_FILENAME= adjoint

GRAD_OBJFUNC_FILENAME= of_grad.dat

SURFACE_FILENAME= surface_flow

SURFACE_ADJ_FILENAME= surface_adjoint

OUTPUT_WRT_FREQ= 1000

OUTPUT_FILES=(RESTART, PARAVIEW_MULTIBLOCK)

SCREEN_OUTPUT= (INNER_ITER, RMS_DENSITY, MAX_CFL, AVG_SOUNDSPEED)

HISTORY_OUTPUT = RMS_RES

VOLUME_OUTPUT = SOLUTION, PRIMITIVE, RESIDUALS
