%%%%%%%%%%%%%%%%%%%%%%%%%%%%%%%%%%%%%%%%%%%%%%%%%%%%%%%%%%%%%%%%%%%%%%%%%%%%%%%%
%                                                                              %
% SU2 configuration file                                                       %
% Case description: 2D NACA 0012 Airfoil Validation Case (incompressible)      %
%                   http://turbmodels.larc.nasa.gov/naca0012_val_sa.html       %
% Author: Francisco Palacios	                                               %
% Institution: Stanford University                                             %
% Date: Feb 18th, 2013                                                         %
% File Version 8.0.1 "Harrier"                                                 %
%                                                                              %
%%%%%%%%%%%%%%%%%%%%%%%%%%%%%%%%%%%%%%%%%%%%%%%%%%%%%%%%%%%%%%%%%%%%%%%%%%%%%%%%

% ------------- DIRECT, ADJOINT, AND LINEARIZED PROBLEM DEFINITION ------------%
%
SOLVER= INC_RANS
KIND_TURB_MODEL= SST
MATH_PROBLEM= DIRECT
RESTART_SOL= NO
AXISYMMETRIC = YES

% ------------------------- UNSTEADY SIMULATION -------------------------------%
%
TIME_MARCHING= NO
FLUID_MODEL= STANDARD_AIR

% ---------------- INCOMPRESSIBLE FLOW CONDITION DEFINITION -------------------%
%
INC_DENSITY_INIT= 1.0
INC_TEMPERATURE_INIT = 300.0
INC_VELOCITY_INIT= ( 1.0, 0.0, 0.0 )

% --------------------------- VISCOSITY MODEL ---------------------------------%
%
VISCOSITY_MODEL= CONSTANT_VISCOSITY
MU_CONSTANT= 0.017
CONDUCTIVITY_MODEL= CONSTANT_PRANDTL
PRANDTL_LAM= 0.72
PRANDTL_TURB= 0.90
% ---------------------- REFERENCE VALUE DEFINITION ---------------------------%
%

REF_LENGTH= 1.0
REF_AREA= 1.0

% -------------------- BOUNDARY CONDITION DEFINITION --------------------------%
%
MARKER_HEATFLUX = (left, 0.0, upper, 0.0)
MARKER_EULER = (left, upper)
INC_INLET_TYPE= VELOCITY_INLET
MARKER_INLET = (inlet, 300, 20.0, 1.0,0.0,0.0)
INC_OUTLET_TYPE= PRESSURE_OUTLET
MARKER_OUTLET = (right, 1e1)
MARKER_SYM = (lower)

MARKER_INLET_TURBULENT = (inlet, 0.025, 10)

%
NUM_METHOD_GRAD= WEIGHTED_LEAST_SQUARES
CFL_NUMBER= 50.0
CFL_ADAPT= NO
ITER= 35000

% ------------------------ LINEAR SOLVER DEFINITION ---------------------------%
%
LINEAR_SOLVER= FGMRES
LINEAR_SOLVER_PREC= LU_SGS
LINEAR_SOLVER_ERROR= 1E-4
LINEAR_SOLVER_ITER= 50

CONV_NUM_METHOD_TURB= SCALAR_UPWIND
CONV_NUM_METHOD_FLOW= FDS
MUSCL_TURB= YES
MUSCL_FLOW = YES

% --------------------------- CONVERGENCE PARAMETERS --------------------------%
%
CONV_FIELD = RMS_VELOCITY-X
CONV_RESIDUAL_MINVAL= -8
CONV_STARTITER= 10

%
MESH_FILENAME= mesh.su2
%
SCREEN_OUTPUT=  INNER_ITER \
                RMS_VELOCITY-X BGS_VELOCITY-X\
                LINSOL_ITER LINSOL_RESIDUAL\
                MAX_CFL\
                RES_VELOCITY-X

SCREEN_WRT_FREQ_INNER= 10
%
HISTORY_OUTPUT= INNER_ITER \
                RMS_VELOCITY-X BGS_VELOCITY-X\
                LINSOL_ITER LINSOL_RESIDUAL\
                MAX_CFL\
                RES_VELOCITY-X

CONV_FILENAME= history

OUTPUT_FILES= RESTART_ASCII, PARAVIEW_MULTIBLOCK
VOLUME_OUTPUT= RESIDUAL, PRIMITIVE
OUTPUT_WRT_FREQ= 1000
%

READ_BINARY_RESTART= NO
RESTART_FILENAME= restart
SOLUTION_FILENAME= solution
%
WRT_PERFORMANCE= YES
