%%%%%%%%%%%%%%%%%%%%%%%%%%%%%%%%%%%%%%%%%%%%%%%%%%%%%%%%%%%%%%%%%%%%%%%%%%%%%%%%
%                                                                              %
% SU2 configuration file                                                       %
% Case description: 2D NACA 0012 Airfoil Validation Case (incompressible)      %
%                   http://turbmodels.larc.nasa.gov/naca0012_val_sa.html       %
% Author: Francisco Palacios	                                               %
% Institution: Stanford University                                             %
% Date: Feb 18th, 2013                                                         %
% File Version 8.0.1 "Harrier"                                                 %
%                                                                              %
%%%%%%%%%%%%%%%%%%%%%%%%%%%%%%%%%%%%%%%%%%%%%%%%%%%%%%%%%%%%%%%%%%%%%%%%%%%%%%%%

% ------------- DIRECT, ADJOINT, AND LINEARIZED PROBLEM DEFINITION ------------%
%python3 rectangle.py -f mesh.su2 -n 160 -m 100 -l 40 -b 10 -i 0.25 -c 0.3 -g 0.1
SOLVER= INC_RANS
KIND_TURB_MODEL= SST
MATH_PROBLEM= DIRECT
RESTART_SOL= NO
AXISYMMETRIC = YES
INC_ENERGY_EQUATION=YES

% ------------------------- UNSTEADY SIMULATION -------------------------------%
%
TIME_MARCHING= NO
FLUID_MODEL= STANDARD_AIR

% ---------------- INCOMPRESSIBLE FLOW CONDITION DEFINITION -------------------%
%
INC_DENSITY_INIT= 1.0
INC_TEMPERATURE_INIT = 300.0
INC_VELOCITY_INIT= ( 1.0, 0.0, 0.0 )

% --------------------------- VISCOSITY MODEL ---------------------------------%
%
VISCOSITY_MODEL= CONSTANT_VISCOSITY
MU_CONSTANT= 0.0006
CONDUCTIVITY_MODEL= CONSTANT_PRANDTL
PRANDTL_LAM= 0.72
PRANDTL_TURB= 0.90
% ---------------------- REFERENCE VALUE DEFINITION ---------------------------%
%

REF_LENGTH= 1.0
REF_AREA= 1.0

% -------------------- BOUNDARY CONDITION DEFINITION --------------------------%
%
MARKER_HEATFLUX = (left, 0.0, upper, 0.0)
MARKER_EULER = (left, upper)
INC_INLET_TYPE= VELOCITY_INLET
MARKER_INLET = (inlet, 300, 2.0, 1.0,0.0,0.0)
INC_OUTLET_TYPE= PRESSURE_OUTLET
MARKER_OUTLET = (right, 0.0)
MARKER_SYM = (lower)

MARKER_INLET_TURBULENT = (inlet, 0.025, 10)


NUM_METHOD_GRAD= WEIGHTED_LEAST_SQUARES
CFL_NUMBER= 15.0
CFL_ADAPT= NO
ITER= 99999

% ------------------------ LINEAR SOLVER DEFINITION ---------------------------%
%
LINEAR_SOLVER= FGMRES
LINEAR_SOLVER_PREC= ILU
LINEAR_SOLVER_ERROR= 1E-4
LINEAR_SOLVER_ITER= 50

CONV_NUM_METHOD_TURB= SCALAR_UPWIND
CONV_NUM_METHOD_FLOW= FDS
MUSCL_TURB= YES
MUSCL_FLOW = YES

% --------------------------- CONVERGENCE PARAMETERS --------------------------%
%
CONV_FIELD = RMS_VELOCITY
CONV_RESIDUAL_MINVAL= -15
CONV_STARTITER= 10

%
MESH_FILENAME= mesh.su2
%
SCREEN_OUTPUT=  RMS _RES TIME_ITER INNER_ITER \             
                LINSOL_ITER LINSOL_RESIDUAL\
                MAX_CFL \
                rms_sound_speed


SCREEN_WRT_FREQ_INNER= 10

CUSTOM_OUTPUTS= 'sound_speed : Macro{401.8*TEMPERATURE}; rms_ss : AreaAvg{$sound_speed}[bottom]; rms_speed_sound : Function{sqrt(rms_ss)}'

HISTORY_OUTPUT= RMS_RES INNER_ITER \
                LINSOL_ITER LINSOL_RESIDUAL \
                MAX_CFL \
                rms_sound_speed

CONV_FILENAME= history

OUTPUT_FILES= RESTART_ASCII, PARAVIEW_MULTIBLOCK
VOLUME_OUTPUT= RESIDUAL, PRIMITIVE, SOLUTION, CUSTOM
OUTPUT_WRT_FREQ= 1000
%

READ_BINARY_RESTART= NO
RESTART_FILENAME= restart
SOLUTION_FILENAME= solution
%
WRT_PERFORMANCE= YES
